<routes>
            <vType accel="1.0" decel="4.5" id="Car" length="5.0" minGap="2.5" maxSpeed="25" sigma="0.5" />

            <route id="W_N" edges="W2TL TL2N"/>
            <route id="W_E" edges="W2TL TL2E"/>
            <route id="W_S" edges="W2TL TL2S"/>
            <route id="N_W" edges="N2TL TL2W"/>
            <route id="N_E" edges="N2TL TL2E"/>
            <route id="N_S" edges="N2TL TL2S"/>
            <route id="E_W" edges="E2TL TL2W"/>
            <route id="E_N" edges="E2TL TL2N"/>
            <route id="E_S" edges="E2TL TL2S"/>
            <route id="S_W" edges="S2TL TL2W"/>
            <route id="S_N" edges="S2TL TL2N"/>
            <route id="S_E" edges="S2TL TL2E"/>
    <vehicle id="N_S_0" type="Car" route="N_S" depart="2700.0" departLane="random" departSpeed="10" />
    <vehicle id="E_W_1" type="Car" route="E_W" depart="2700.0" departLane="random" departSpeed="10" />
    <vehicle id="W_E_2" type="Car" route="W_E" depart="2700.0" departLane="random" departSpeed="10" />
    <vehicle id="N_S_3" type="Car" route="N_S" depart="2700.0" departLane="random" departSpeed="10" />
    <vehicle id="N_S_4" type="Car" route="N_S" depart="2700.0" departLane="random" departSpeed="10" />
    <vehicle id="N_S_5" type="Car" route="N_S" depart="2700.0" departLane="random" departSpeed="10" />
    <vehicle id="N_E_6" type="Car" route="N_E" depart="2700.0" departLane="random" departSpeed="10" />
    <vehicle id="E_W_7" type="Car" route="E_W" depart="2700.0" departLane="random" departSpeed="10" />
    <vehicle id="W_E_8" type="Car" route="W_E" depart="2700.0" departLane="random" departSpeed="10" />
    <vehicle id="S_N_9" type="Car" route="S_N" depart="2700.0" departLane="random" departSpeed="10" />
    <vehicle id="W_E_10" type="Car" route="W_E" depart="2700.0" departLane="random" departSpeed="10" />
    <vehicle id="S_W_11" type="Car" route="S_W" depart="2700.0" departLane="random" departSpeed="10" />
    <vehicle id="S_N_12" type="Car" route="S_N" depart="2700.0" departLane="random" departSpeed="10" />
    <vehicle id="W_E_13" type="Car" route="W_E" depart="2700.0" departLane="random" departSpeed="10" />
    <vehicle id="N_S_14" type="Car" route="N_S" depart="2700.0" departLane="random" departSpeed="10" />
    <vehicle id="N_S_15" type="Car" route="N_S" depart="2700.0" departLane="random" departSpeed="10" />
    <vehicle id="E_N_16" type="Car" route="E_N" depart="2700.0" departLane="random" departSpeed="10" />
    <vehicle id="E_W_17" type="Car" route="E_W" depart="2700.0" departLane="random" departSpeed="10" />
    <vehicle id="E_W_18" type="Car" route="E_W" depart="2700.0" departLane="random" departSpeed="10" />
    <vehicle id="N_S_19" type="Car" route="N_S" depart="2700.0" departLane="random" departSpeed="10" />
    <vehicle id="W_E_20" type="Car" route="W_E" depart="2700.0" departLane="random" departSpeed="10" />
    <vehicle id="N_S_21" type="Car" route="N_S" depart="2700.0" departLane="random" departSpeed="10" />
    <vehicle id="W_N_22" type="Car" route="W_N" depart="2700.0" departLane="random" departSpeed="10" />
    <vehicle id="S_N_23" type="Car" route="S_N" depart="2700.0" departLane="random" departSpeed="10" />
    <vehicle id="N_S_24" type="Car" route="N_S" depart="2700.0" departLane="random" departSpeed="10" />
    <vehicle id="E_W_25" type="Car" route="E_W" depart="2700.0" departLane="random" departSpeed="10" />
    <vehicle id="E_W_26" type="Car" route="E_W" depart="2700.0" departLane="random" departSpeed="10" />
    <vehicle id="E_W_27" type="Car" route="E_W" depart="2700.0" departLane="random" departSpeed="10" />
    <vehicle id="E_W_28" type="Car" route="E_W" depart="2700.0" departLane="random" departSpeed="10" />
    <vehicle id="N_S_29" type="Car" route="N_S" depart="2700.0" departLane="random" departSpeed="10" />
    <vehicle id="S_N_30" type="Car" route="S_N" depart="2700.0" departLane="random" departSpeed="10" />
    <vehicle id="W_E_31" type="Car" route="W_E" depart="2700.0" departLane="random" departSpeed="10" />
    <vehicle id="E_W_32" type="Car" route="E_W" depart="2700.0" departLane="random" departSpeed="10" />
    <vehicle id="S_N_33" type="Car" route="S_N" depart="2700.0" departLane="random" departSpeed="10" />
    <vehicle id="N_S_34" type="Car" route="N_S" depart="2700.0" departLane="random" departSpeed="10" />
    <vehicle id="W_E_35" type="Car" route="W_E" depart="2700.0" departLane="random" departSpeed="10" />
    <vehicle id="S_W_36" type="Car" route="S_W" depart="2700.0" departLane="random" departSpeed="10" />
    <vehicle id="W_E_37" type="Car" route="W_E" depart="2700.0" departLane="random" departSpeed="10" />
    <vehicle id="E_S_38" type="Car" route="E_S" depart="2700.0" departLane="random" departSpeed="10" />
    <vehicle id="S_N_39" type="Car" route="S_N" depart="2700.0" departLane="random" departSpeed="10" />
    <vehicle id="W_E_40" type="Car" route="W_E" depart="2700.0" departLane="random" departSpeed="10" />
    <vehicle id="S_N_41" type="Car" route="S_N" depart="2700.0" departLane="random" departSpeed="10" />
    <vehicle id="N_S_42" type="Car" route="N_S" depart="2700.0" departLane="random" departSpeed="10" />
    <vehicle id="W_S_43" type="Car" route="W_S" depart="2700.0" departLane="random" departSpeed="10" />
    <vehicle id="E_W_44" type="Car" route="E_W" depart="2700.0" departLane="random" departSpeed="10" />
    <vehicle id="E_W_45" type="Car" route="E_W" depart="2700.0" departLane="random" departSpeed="10" />
    <vehicle id="W_E_46" type="Car" route="W_E" depart="2700.0" departLane="random" departSpeed="10" />
    <vehicle id="W_N_47" type="Car" route="W_N" depart="2700.0" departLane="random" departSpeed="10" />
    <vehicle id="W_E_48" type="Car" route="W_E" depart="2700.0" departLane="random" departSpeed="10" />
    <vehicle id="N_W_49" type="Car" route="N_W" depart="2700.0" departLane="random" departSpeed="10" />
    <vehicle id="N_S_50" type="Car" route="N_S" depart="2700.0" departLane="random" departSpeed="10" />
    <vehicle id="S_W_51" type="Car" route="S_W" depart="2700.0" departLane="random" departSpeed="10" />
    <vehicle id="N_S_52" type="Car" route="N_S" depart="2700.0" departLane="random" departSpeed="10" />
    <vehicle id="S_N_53" type="Car" route="S_N" depart="2700.0" departLane="random" departSpeed="10" />
    <vehicle id="S_W_54" type="Car" route="S_W" depart="2700.0" departLane="random" departSpeed="10" />
    <vehicle id="W_E_55" type="Car" route="W_E" depart="2700.0" departLane="random" departSpeed="10" />
    <vehicle id="N_W_56" type="Car" route="N_W" depart="2700.0" departLane="random" departSpeed="10" />
    <vehicle id="W_N_57" type="Car" route="W_N" depart="2700.0" departLane="random" departSpeed="10" />
    <vehicle id="W_E_58" type="Car" route="W_E" depart="2700.0" departLane="random" departSpeed="10" />
    <vehicle id="N_S_59" type="Car" route="N_S" depart="2700.0" departLane="random" departSpeed="10" />
    <vehicle id="S_N_60" type="Car" route="S_N" depart="2700.0" departLane="random" departSpeed="10" />
    <vehicle id="W_S_61" type="Car" route="W_S" depart="2700.0" departLane="random" departSpeed="10" />
    <vehicle id="S_W_62" type="Car" route="S_W" depart="2700.0" departLane="random" departSpeed="10" />
    <vehicle id="S_N_63" type="Car" route="S_N" depart="2700.0" departLane="random" departSpeed="10" />
    <vehicle id="S_N_64" type="Car" route="S_N" depart="2700.0" departLane="random" departSpeed="10" />
    <vehicle id="W_N_65" type="Car" route="W_N" depart="2700.0" departLane="random" departSpeed="10" />
    <vehicle id="E_W_66" type="Car" route="E_W" depart="2700.0" departLane="random" departSpeed="10" />
    <vehicle id="W_E_67" type="Car" route="W_E" depart="2700.0" departLane="random" departSpeed="10" />
    <vehicle id="N_S_68" type="Car" route="N_S" depart="2700.0" departLane="random" departSpeed="10" />
    <vehicle id="W_N_69" type="Car" route="W_N" depart="2700.0" departLane="random" departSpeed="10" />
    <vehicle id="N_W_70" type="Car" route="N_W" depart="2700.0" departLane="random" departSpeed="10" />
    <vehicle id="S_W_71" type="Car" route="S_W" depart="2700.0" departLane="random" departSpeed="10" />
    <vehicle id="E_W_72" type="Car" route="E_W" depart="2700.0" departLane="random" departSpeed="10" />
    <vehicle id="N_S_73" type="Car" route="N_S" depart="2700.0" departLane="random" departSpeed="10" />
    <vehicle id="E_W_74" type="Car" route="E_W" depart="2700.0" departLane="random" departSpeed="10" />
    <vehicle id="N_S_75" type="Car" route="N_S" depart="2700.0" departLane="random" departSpeed="10" />
    <vehicle id="S_N_76" type="Car" route="S_N" depart="2700.0" departLane="random" departSpeed="10" />
    <vehicle id="S_N_77" type="Car" route="S_N" depart="2700.0" departLane="random" departSpeed="10" />
    <vehicle id="N_S_78" type="Car" route="N_S" depart="2700.0" departLane="random" departSpeed="10" />
    <vehicle id="N_S_79" type="Car" route="N_S" depart="2700.0" departLane="random" departSpeed="10" />
    <vehicle id="S_N_80" type="Car" route="S_N" depart="2700.0" departLane="random" departSpeed="10" />
    <vehicle id="E_W_81" type="Car" route="E_W" depart="2700.0" departLane="random" departSpeed="10" />
    <vehicle id="S_N_82" type="Car" route="S_N" depart="2700.0" departLane="random" departSpeed="10" />
    <vehicle id="S_N_83" type="Car" route="S_N" depart="2700.0" departLane="random" departSpeed="10" />
    <vehicle id="S_W_84" type="Car" route="S_W" depart="2700.0" departLane="random" departSpeed="10" />
    <vehicle id="N_S_85" type="Car" route="N_S" depart="2700.0" departLane="random" departSpeed="10" />
    <vehicle id="E_W_86" type="Car" route="E_W" depart="2700.0" departLane="random" departSpeed="10" />
    <vehicle id="N_S_87" type="Car" route="N_S" depart="2700.0" departLane="random" departSpeed="10" />
    <vehicle id="W_N_88" type="Car" route="W_N" depart="2700.0" departLane="random" departSpeed="10" />
    <vehicle id="E_S_89" type="Car" route="E_S" depart="2700.0" departLane="random" departSpeed="10" />
    <vehicle id="S_N_90" type="Car" route="S_N" depart="2700.0" departLane="random" departSpeed="10" />
    <vehicle id="W_E_91" type="Car" route="W_E" depart="2700.0" departLane="random" departSpeed="10" />
    <vehicle id="N_S_92" type="Car" route="N_S" depart="2700.0" departLane="random" departSpeed="10" />
    <vehicle id="W_E_93" type="Car" route="W_E" depart="2700.0" departLane="random" departSpeed="10" />
    <vehicle id="S_N_94" type="Car" route="S_N" depart="2700.0" departLane="random" departSpeed="10" />
    <vehicle id="S_N_95" type="Car" route="S_N" depart="2700.0" departLane="random" departSpeed="10" />
    <vehicle id="N_S_96" type="Car" route="N_S" depart="2700.0" departLane="random" departSpeed="10" />
    <vehicle id="W_E_97" type="Car" route="W_E" depart="2700.0" departLane="random" departSpeed="10" />
    <vehicle id="E_W_98" type="Car" route="E_W" depart="2700.0" departLane="random" departSpeed="10" />
    <vehicle id="E_W_99" type="Car" route="E_W" depart="2700.0" departLane="random" departSpeed="10" />
    <vehicle id="N_S_100" type="Car" route="N_S" depart="2700.0" departLane="random" departSpeed="10" />
    <vehicle id="S_N_101" type="Car" route="S_N" depart="2700.0" departLane="random" departSpeed="10" />
    <vehicle id="E_W_102" type="Car" route="E_W" depart="2700.0" departLane="random" departSpeed="10" />
    <vehicle id="S_E_103" type="Car" route="S_E" depart="2700.0" departLane="random" departSpeed="10" />
    <vehicle id="N_S_104" type="Car" route="N_S" depart="2700.0" departLane="random" departSpeed="10" />
    <vehicle id="N_E_105" type="Car" route="N_E" depart="2700.0" departLane="random" departSpeed="10" />
    <vehicle id="E_W_106" type="Car" route="E_W" depart="2700.0" departLane="random" departSpeed="10" />
    <vehicle id="N_E_107" type="Car" route="N_E" depart="2700.0" departLane="random" departSpeed="10" />
    <vehicle id="S_N_108" type="Car" route="S_N" depart="2700.0" departLane="random" departSpeed="10" />
    <vehicle id="S_N_109" type="Car" route="S_N" depart="2700.0" departLane="random" departSpeed="10" />
    <vehicle id="N_S_110" type="Car" route="N_S" depart="2700.0" departLane="random" departSpeed="10" />
    <vehicle id="S_E_111" type="Car" route="S_E" depart="2700.0" departLane="random" departSpeed="10" />
    <vehicle id="W_N_112" type="Car" route="W_N" depart="2700.0" departLane="random" departSpeed="10" />
    <vehicle id="S_N_113" type="Car" route="S_N" depart="2700.0" departLane="random" departSpeed="10" />
    <vehicle id="N_S_114" type="Car" route="N_S" depart="2700.0" departLane="random" departSpeed="10" />
    <vehicle id="S_N_115" type="Car" route="S_N" depart="2700.0" departLane="random" departSpeed="10" />
    <vehicle id="W_S_116" type="Car" route="W_S" depart="2700.0" departLane="random" departSpeed="10" />
    <vehicle id="N_E_117" type="Car" route="N_E" depart="2700.0" departLane="random" departSpeed="10" />
    <vehicle id="S_N_118" type="Car" route="S_N" depart="2700.0" departLane="random" departSpeed="10" />
    <vehicle id="E_S_119" type="Car" route="E_S" depart="2700.0" departLane="random" departSpeed="10" />
    <vehicle id="S_N_120" type="Car" route="S_N" depart="2700.0" departLane="random" departSpeed="10" />
    <vehicle id="E_S_121" type="Car" route="E_S" depart="2700.0" departLane="random" departSpeed="10" />
    <vehicle id="E_W_122" type="Car" route="E_W" depart="2700.0" departLane="random" departSpeed="10" />
    <vehicle id="S_E_123" type="Car" route="S_E" depart="2700.0" departLane="random" departSpeed="10" />
    <vehicle id="E_W_124" type="Car" route="E_W" depart="2700.0" departLane="random" departSpeed="10" />
    <vehicle id="W_N_125" type="Car" route="W_N" depart="2700.0" departLane="random" departSpeed="10" />
    <vehicle id="E_S_126" type="Car" route="E_S" depart="2700.0" departLane="random" departSpeed="10" />
    <vehicle id="N_S_127" type="Car" route="N_S" depart="2700.0" departLane="random" departSpeed="10" />
    <vehicle id="W_E_128" type="Car" route="W_E" depart="2700.0" departLane="random" departSpeed="10" />
    <vehicle id="W_E_129" type="Car" route="W_E" depart="2700.0" departLane="random" departSpeed="10" />
    <vehicle id="N_S_130" type="Car" route="N_S" depart="2700.0" departLane="random" departSpeed="10" />
    <vehicle id="W_E_131" type="Car" route="W_E" depart="2700.0" departLane="random" departSpeed="10" />
    <vehicle id="N_S_132" type="Car" route="N_S" depart="2700.0" departLane="random" departSpeed="10" />
    <vehicle id="E_W_133" type="Car" route="E_W" depart="2700.0" departLane="random" departSpeed="10" />
    <vehicle id="E_S_134" type="Car" route="E_S" depart="2700.0" departLane="random" departSpeed="10" />
    <vehicle id="E_W_135" type="Car" route="E_W" depart="2700.0" departLane="random" departSpeed="10" />
    <vehicle id="S_N_136" type="Car" route="S_N" depart="2700.0" departLane="random" departSpeed="10" />
    <vehicle id="N_S_137" type="Car" route="N_S" depart="2700.0" departLane="random" departSpeed="10" />
    <vehicle id="E_S_138" type="Car" route="E_S" depart="2700.0" departLane="random" departSpeed="10" />
    <vehicle id="S_N_139" type="Car" route="S_N" depart="2700.0" departLane="random" departSpeed="10" />
    <vehicle id="S_N_140" type="Car" route="S_N" depart="2700.0" departLane="random" departSpeed="10" />
    <vehicle id="W_N_141" type="Car" route="W_N" depart="2700.0" departLane="random" departSpeed="10" />
    <vehicle id="N_S_142" type="Car" route="N_S" depart="2700.0" departLane="random" departSpeed="10" />
    <vehicle id="N_E_143" type="Car" route="N_E" depart="2700.0" departLane="random" departSpeed="10" />
    <vehicle id="W_E_144" type="Car" route="W_E" depart="2700.0" departLane="random" departSpeed="10" />
    <vehicle id="W_S_145" type="Car" route="W_S" depart="2700.0" departLane="random" departSpeed="10" />
    <vehicle id="S_N_146" type="Car" route="S_N" depart="2700.0" departLane="random" departSpeed="10" />
    <vehicle id="N_S_147" type="Car" route="N_S" depart="2700.0" departLane="random" departSpeed="10" />
    <vehicle id="N_W_148" type="Car" route="N_W" depart="2700.0" departLane="random" departSpeed="10" />
    <vehicle id="E_W_149" type="Car" route="E_W" depart="2700.0" departLane="random" departSpeed="10" />
    <vehicle id="N_S_150" type="Car" route="N_S" depart="2700.0" departLane="random" departSpeed="10" />
    <vehicle id="S_N_151" type="Car" route="S_N" depart="2700.0" departLane="random" departSpeed="10" />
    <vehicle id="S_N_152" type="Car" route="S_N" depart="2700.0" departLane="random" departSpeed="10" />
    <vehicle id="N_S_153" type="Car" route="N_S" depart="2700.0" departLane="random" departSpeed="10" />
    <vehicle id="W_E_154" type="Car" route="W_E" depart="2700.0" departLane="random" departSpeed="10" />
    <vehicle id="E_W_155" type="Car" route="E_W" depart="2700.0" departLane="random" departSpeed="10" />
    <vehicle id="S_N_156" type="Car" route="S_N" depart="2700.0" departLane="random" departSpeed="10" />
    <vehicle id="W_E_157" type="Car" route="W_E" depart="2700.0" departLane="random" departSpeed="10" />
    <vehicle id="W_E_158" type="Car" route="W_E" depart="2700.0" departLane="random" departSpeed="10" />
    <vehicle id="W_E_159" type="Car" route="W_E" depart="2700.0" departLane="random" departSpeed="10" />
    <vehicle id="W_E_160" type="Car" route="W_E" depart="2700.0" departLane="random" departSpeed="10" />
    <vehicle id="N_S_161" type="Car" route="N_S" depart="2700.0" departLane="random" departSpeed="10" />
    <vehicle id="W_E_162" type="Car" route="W_E" depart="2700.0" departLane="random" departSpeed="10" />
    <vehicle id="W_E_163" type="Car" route="W_E" depart="2700.0" departLane="random" departSpeed="10" />
    <vehicle id="S_N_164" type="Car" route="S_N" depart="2700.0" departLane="random" departSpeed="10" />
    <vehicle id="N_S_165" type="Car" route="N_S" depart="2700.0" departLane="random" departSpeed="10" />
    <vehicle id="S_N_166" type="Car" route="S_N" depart="2700.0" departLane="random" departSpeed="10" />
    <vehicle id="W_S_167" type="Car" route="W_S" depart="2700.0" departLane="random" departSpeed="10" />
    <vehicle id="N_S_168" type="Car" route="N_S" depart="2700.0" departLane="random" departSpeed="10" />
    <vehicle id="W_S_169" type="Car" route="W_S" depart="2700.0" departLane="random" departSpeed="10" />
    <vehicle id="E_W_170" type="Car" route="E_W" depart="2700.0" departLane="random" departSpeed="10" />
    <vehicle id="W_N_171" type="Car" route="W_N" depart="2700.0" departLane="random" departSpeed="10" />
    <vehicle id="W_E_172" type="Car" route="W_E" depart="2700.0" departLane="random" departSpeed="10" />
    <vehicle id="E_W_173" type="Car" route="E_W" depart="2700.0" departLane="random" departSpeed="10" />
    <vehicle id="W_N_174" type="Car" route="W_N" depart="2700.0" departLane="random" departSpeed="10" />
    <vehicle id="S_N_175" type="Car" route="S_N" depart="2700.0" departLane="random" departSpeed="10" />
    <vehicle id="W_S_176" type="Car" route="W_S" depart="2700.0" departLane="random" departSpeed="10" />
    <vehicle id="E_N_177" type="Car" route="E_N" depart="2700.0" departLane="random" departSpeed="10" />
    <vehicle id="S_N_178" type="Car" route="S_N" depart="2700.0" departLane="random" departSpeed="10" />
    <vehicle id="W_E_179" type="Car" route="W_E" depart="2700.0" departLane="random" departSpeed="10" />
    <vehicle id="S_N_180" type="Car" route="S_N" depart="2700.0" departLane="random" departSpeed="10" />
    <vehicle id="N_S_181" type="Car" route="N_S" depart="2700.0" departLane="random" departSpeed="10" />
    <vehicle id="E_W_182" type="Car" route="E_W" depart="2700.0" departLane="random" departSpeed="10" />
    <vehicle id="S_N_183" type="Car" route="S_N" depart="2700.0" departLane="random" departSpeed="10" />
    <vehicle id="E_S_184" type="Car" route="E_S" depart="2700.0" departLane="random" departSpeed="10" />
    <vehicle id="S_N_185" type="Car" route="S_N" depart="2700.0" departLane="random" departSpeed="10" />
    <vehicle id="N_S_186" type="Car" route="N_S" depart="2700.0" departLane="random" departSpeed="10" />
    <vehicle id="N_S_187" type="Car" route="N_S" depart="2700.0" departLane="random" departSpeed="10" />
    <vehicle id="S_N_188" type="Car" route="S_N" depart="2700.0" departLane="random" departSpeed="10" />
    <vehicle id="W_E_189" type="Car" route="W_E" depart="2700.0" departLane="random" departSpeed="10" />
    <vehicle id="S_W_190" type="Car" route="S_W" depart="2700.0" departLane="random" departSpeed="10" />
    <vehicle id="E_N_191" type="Car" route="E_N" depart="2700.0" departLane="random" departSpeed="10" />
    <vehicle id="E_W_192" type="Car" route="E_W" depart="2700.0" departLane="random" departSpeed="10" />
    <vehicle id="E_W_193" type="Car" route="E_W" depart="2700.0" departLane="random" departSpeed="10" />
    <vehicle id="E_N_194" type="Car" route="E_N" depart="2700.0" departLane="random" departSpeed="10" />
    <vehicle id="W_E_195" type="Car" route="W_E" depart="2700.0" departLane="random" departSpeed="10" />
    <vehicle id="E_W_196" type="Car" route="E_W" depart="2700.0" departLane="random" departSpeed="10" />
    <vehicle id="E_W_197" type="Car" route="E_W" depart="2700.0" departLane="random" departSpeed="10" />
    <vehicle id="N_S_198" type="Car" route="N_S" depart="2700.0" departLane="random" departSpeed="10" />
    <vehicle id="S_E_199" type="Car" route="S_E" depart="2700.0" departLane="random" departSpeed="10" />
    <vehicle id="N_E_200" type="Car" route="N_E" depart="2700.0" departLane="random" departSpeed="10" />
    <vehicle id="E_S_201" type="Car" route="E_S" depart="2700.0" departLane="random" departSpeed="10" />
    <vehicle id="E_N_202" type="Car" route="E_N" depart="2700.0" departLane="random" departSpeed="10" />
    <vehicle id="N_S_203" type="Car" route="N_S" depart="2700.0" departLane="random" departSpeed="10" />
    <vehicle id="N_S_204" type="Car" route="N_S" depart="2700.0" departLane="random" departSpeed="10" />
    <vehicle id="W_E_205" type="Car" route="W_E" depart="2700.0" departLane="random" departSpeed="10" />
    <vehicle id="N_E_206" type="Car" route="N_E" depart="2700.0" departLane="random" departSpeed="10" />
    <vehicle id="N_S_207" type="Car" route="N_S" depart="2700.0" departLane="random" departSpeed="10" />
    <vehicle id="S_N_208" type="Car" route="S_N" depart="2700.0" departLane="random" departSpeed="10" />
    <vehicle id="N_S_209" type="Car" route="N_S" depart="2700.0" departLane="random" departSpeed="10" />
    <vehicle id="N_S_210" type="Car" route="N_S" depart="2700.0" departLane="random" departSpeed="10" />
    <vehicle id="W_S_211" type="Car" route="W_S" depart="2700.0" departLane="random" departSpeed="10" />
    <vehicle id="E_S_212" type="Car" route="E_S" depart="2700.0" departLane="random" departSpeed="10" />
    <vehicle id="S_N_213" type="Car" route="S_N" depart="2700.0" departLane="random" departSpeed="10" />
    <vehicle id="E_W_214" type="Car" route="E_W" depart="2700.0" departLane="random" departSpeed="10" />
    <vehicle id="E_S_215" type="Car" route="E_S" depart="2700.0" departLane="random" departSpeed="10" />
    <vehicle id="S_E_216" type="Car" route="S_E" depart="2700.0" departLane="random" departSpeed="10" />
    <vehicle id="E_W_217" type="Car" route="E_W" depart="2700.0" departLane="random" departSpeed="10" />
    <vehicle id="S_N_218" type="Car" route="S_N" depart="2700.0" departLane="random" departSpeed="10" />
    <vehicle id="E_W_219" type="Car" route="E_W" depart="2700.0" departLane="random" departSpeed="10" />
    <vehicle id="N_S_220" type="Car" route="N_S" depart="2700.0" departLane="random" departSpeed="10" />
    <vehicle id="S_N_221" type="Car" route="S_N" depart="2700.0" departLane="random" departSpeed="10" />
    <vehicle id="S_N_222" type="Car" route="S_N" depart="2700.0" departLane="random" departSpeed="10" />
    <vehicle id="W_E_223" type="Car" route="W_E" depart="2700.0" departLane="random" departSpeed="10" />
    <vehicle id="E_S_224" type="Car" route="E_S" depart="2700.0" departLane="random" departSpeed="10" />
    <vehicle id="E_W_225" type="Car" route="E_W" depart="2700.0" departLane="random" departSpeed="10" />
    <vehicle id="S_N_226" type="Car" route="S_N" depart="2700.0" departLane="random" departSpeed="10" />
    <vehicle id="S_N_227" type="Car" route="S_N" depart="2700.0" departLane="random" departSpeed="10" />
    <vehicle id="S_N_228" type="Car" route="S_N" depart="2700.0" departLane="random" departSpeed="10" />
    <vehicle id="N_S_229" type="Car" route="N_S" depart="2700.0" departLane="random" departSpeed="10" />
    <vehicle id="N_E_230" type="Car" route="N_E" depart="2700.0" departLane="random" departSpeed="10" />
    <vehicle id="N_S_231" type="Car" route="N_S" depart="2700.0" departLane="random" departSpeed="10" />
    <vehicle id="N_S_232" type="Car" route="N_S" depart="2700.0" departLane="random" departSpeed="10" />
    <vehicle id="S_N_233" type="Car" route="S_N" depart="2700.0" departLane="random" departSpeed="10" />
    <vehicle id="W_E_234" type="Car" route="W_E" depart="2700.0" departLane="random" departSpeed="10" />
    <vehicle id="E_S_235" type="Car" route="E_S" depart="2700.0" departLane="random" departSpeed="10" />
    <vehicle id="E_W_236" type="Car" route="E_W" depart="2700.0" departLane="random" departSpeed="10" />
    <vehicle id="W_E_237" type="Car" route="W_E" depart="2700.0" departLane="random" departSpeed="10" />
    <vehicle id="W_E_238" type="Car" route="W_E" depart="2700.0" departLane="random" departSpeed="10" />
    <vehicle id="E_W_239" type="Car" route="E_W" depart="2700.0" departLane="random" departSpeed="10" />
    <vehicle id="N_S_240" type="Car" route="N_S" depart="2700.0" departLane="random" departSpeed="10" />
    <vehicle id="S_W_241" type="Car" route="S_W" depart="2700.0" departLane="random" departSpeed="10" />
    <vehicle id="N_S_242" type="Car" route="N_S" depart="2700.0" departLane="random" departSpeed="10" />
    <vehicle id="S_W_243" type="Car" route="S_W" depart="2700.0" departLane="random" departSpeed="10" />
    <vehicle id="S_E_244" type="Car" route="S_E" depart="2700.0" departLane="random" departSpeed="10" />
    <vehicle id="S_W_245" type="Car" route="S_W" depart="2700.0" departLane="random" departSpeed="10" />
    <vehicle id="E_W_246" type="Car" route="E_W" depart="2700.0" departLane="random" departSpeed="10" />
    <vehicle id="N_S_247" type="Car" route="N_S" depart="2700.0" departLane="random" departSpeed="10" />
    <vehicle id="E_N_248" type="Car" route="E_N" depart="2700.0" departLane="random" departSpeed="10" />
    <vehicle id="W_S_249" type="Car" route="W_S" depart="2700.0" departLane="random" departSpeed="10" />
    <vehicle id="E_N_250" type="Car" route="E_N" depart="2700.0" departLane="random" departSpeed="10" />
    <vehicle id="S_N_251" type="Car" route="S_N" depart="2700.0" departLane="random" departSpeed="10" />
    <vehicle id="W_E_252" type="Car" route="W_E" depart="2700.0" departLane="random" departSpeed="10" />
    <vehicle id="W_E_253" type="Car" route="W_E" depart="2700.0" departLane="random" departSpeed="10" />
    <vehicle id="S_N_254" type="Car" route="S_N" depart="2700.0" departLane="random" departSpeed="10" />
    <vehicle id="E_W_255" type="Car" route="E_W" depart="2700.0" departLane="random" departSpeed="10" />
    <vehicle id="W_E_256" type="Car" route="W_E" depart="2700.0" departLane="random" departSpeed="10" />
    <vehicle id="E_W_257" type="Car" route="E_W" depart="2700.0" departLane="random" departSpeed="10" />
    <vehicle id="W_E_258" type="Car" route="W_E" depart="2700.0" departLane="random" departSpeed="10" />
    <vehicle id="W_E_259" type="Car" route="W_E" depart="2700.0" departLane="random" departSpeed="10" />
    <vehicle id="E_W_260" type="Car" route="E_W" depart="2700.0" departLane="random" departSpeed="10" />
    <vehicle id="S_E_261" type="Car" route="S_E" depart="2700.0" departLane="random" departSpeed="10" />
    <vehicle id="W_N_262" type="Car" route="W_N" depart="2700.0" departLane="random" departSpeed="10" />
    <vehicle id="E_W_263" type="Car" route="E_W" depart="2700.0" departLane="random" departSpeed="10" />
    <vehicle id="E_W_264" type="Car" route="E_W" depart="2700.0" departLane="random" departSpeed="10" />
    <vehicle id="N_S_265" type="Car" route="N_S" depart="2700.0" departLane="random" departSpeed="10" />
    <vehicle id="S_W_266" type="Car" route="S_W" depart="2700.0" departLane="random" departSpeed="10" />
    <vehicle id="E_W_267" type="Car" route="E_W" depart="2700.0" departLane="random" departSpeed="10" />
    <vehicle id="W_E_268" type="Car" route="W_E" depart="2700.0" departLane="random" departSpeed="10" />
    <vehicle id="E_N_269" type="Car" route="E_N" depart="2700.0" departLane="random" departSpeed="10" />
    <vehicle id="E_S_270" type="Car" route="E_S" depart="2700.0" departLane="random" departSpeed="10" />
    <vehicle id="E_W_271" type="Car" route="E_W" depart="2700.0" departLane="random" departSpeed="10" />
    <vehicle id="S_W_272" type="Car" route="S_W" depart="2700.0" departLane="random" departSpeed="10" />
    <vehicle id="N_S_273" type="Car" route="N_S" depart="2700.0" departLane="random" departSpeed="10" />
    <vehicle id="N_S_274" type="Car" route="N_S" depart="2700.0" departLane="random" departSpeed="10" />
    <vehicle id="E_W_275" type="Car" route="E_W" depart="2700.0" departLane="random" departSpeed="10" />
    <vehicle id="W_E_276" type="Car" route="W_E" depart="2700.0" departLane="random" departSpeed="10" />